
This summary file was generated by TurbSim (v2.00.07a-bjj, 14-Jun-2016) on 22-Dec-2021 at 15:02:12.


Runtime Options:

      1067  Random seed #1
    RANLUX  Type of random number generator
         F  Output binary HH turbulence parameters?
         F  Output formatted turbulence parameters?
         F  Output AeroDyn HH files?
         F  Output AeroDyn FF files?
         T  Output BLADED FF files?
         F  Output tower data?
         F  Output formatted FF files?
         F  Output coherent turbulence time step file?
         T  Clockwise rotation when looking downwind?
 0 -  NONE  IEC turbulence models scaled to exact specified standard deviation


Turbine/Model Specifications:

        33  Vertical grid-point matrix dimension
        33  Horizontal grid-point matrix dimension
     0.250  Time step [seconds]
  2048.000  Analysis time [seconds]
  2048.000  Usable output time [seconds]
   108.436  Hub height [m]
   144.000  Grid height [m]
   144.000  Grid width [m]
     0.000  Vertical flow angle [degrees]
     0.000  Horizontal flow angle [degrees]


Meteorological Boundary Conditions:

    USRINP  Uniform user-input spectral model
       N/A  IEC standard
       N/A  IEC turbulence characteristic
       N/A  IEC turbulence type
       N/A  IEC Extreme Turbulence Model (ETM) "c" parameter [m/s]
       IEC  Wind profile type
   108.436  Reference height [m]
    16.000  Reference wind speed [m/s]
       N/A  Jet height [m]
     0.200  Power law exponent
     0.030  Surface roughness length [m]


Non-IEC Meteorological Boundary Conditions:

    45.000  Site latitude [degrees]
     0.050  Gradient Richardson number
     0.751  Friction or shear velocity [m/s]
       N/A  Mixing layer depth [m]
       N/A  Mean hub u'w' Reynolds stress
       N/A  Mean hub u'v' Reynolds stress
       N/A  Mean hub v'w' Reynolds stress


Spatial Coherence Models:

       IEC  u-component coherence model
       IEC  v-component coherence model
       IEC  w-component coherence model
(   12.000,  0.00    )  u-component coherence parameters
(*********,  0.00    )  v-component coherence parameters
(*********,  0.00    )  w-component coherence parameters
       N/A  Coherence exponent


You have requested that the following file(s) be generated:

   H:\G\Github\Code\WETI-OpenFAST-LidarSimulator\Torque2022simulation\OpenFAST\Wind\TurbResults\TurbsimKaimal\Kaimal_URef16_ax2d5_Stability_Nu_Seed1067.wnd (AeroDyn/BLADED full-field wnd file)


Turbulence Simulation Scaling Parameter Summary:

   Turbulence model used                            =  Uniform user-input
   Gradient Richardson number                       =    0.050
   Monin-Obukhov (M-O) z/L parameter                =    0.067
   Monin-Obukhov (M-O) length scale                 = 1626.540 m
   Mean wind speed at hub height                    =   16.000 m/s

   Wind profile type                                =  Power law on rotor disk, logarithmic elsewhere
   Power law exponent                               =    0.200
   Mean shear across rotor disk                     =    0.029 (m/s)/m
   Assumed rotor diameter                           =  144.000 m
   Surface roughness length                         =    0.030 m

   Nyquist frequency of turbulent wind field        =    2.000 Hz

   Number of time steps in the FFT                  =     8192
   Number of time steps output                      =     8192
   Number of points simulated                       =     1089


Mean Flow Angles:

   Vertical   =   0.0 degrees
   Horizontal =   0.0 degrees

Mean Wind Speed Profile:

   Height    Wind Speed   Horizontal Angle  Vertical Angle  U-comp (X)   V-comp (Y)   W-comp (Z)
     (m)        (m/s)         (degrees)       (degrees)       (m/s)        (m/s)        (m/s)   
   ------    ----------   ----------------  --------------  ----------   ----------   ----------
    180.4       16.99            0.00            0.00         16.99         0.00         0.00
    175.9       17.63            0.00            0.00         17.63         0.00         0.00
    171.4       17.53            0.00            0.00         17.53         0.00         0.00
    166.9       17.44            0.00            0.00         17.44         0.00         0.00
    162.4       17.35            0.00            0.00         17.35         0.00         0.00
    157.9       17.25            0.00            0.00         17.25         0.00         0.00
    153.4       17.15            0.00            0.00         17.15         0.00         0.00
    148.9       17.05            0.00            0.00         17.05         0.00         0.00
    144.4       16.94            0.00            0.00         16.94         0.00         0.00
    139.9       16.84            0.00            0.00         16.84         0.00         0.00
    135.4       16.73            0.00            0.00         16.73         0.00         0.00
    130.9       16.61            0.00            0.00         16.61         0.00         0.00
    126.4       16.50            0.00            0.00         16.50         0.00         0.00
    121.9       16.38            0.00            0.00         16.38         0.00         0.00
    117.4       16.26            0.00            0.00         16.26         0.00         0.00
    112.9       16.13            0.00            0.00         16.13         0.00         0.00
    108.4       16.00            0.00            0.00         16.00         0.00         0.00
    103.9       15.86            0.00            0.00         15.86         0.00         0.00
     99.4       15.73            0.00            0.00         15.73         0.00         0.00
     94.9       15.58            0.00            0.00         15.58         0.00         0.00
     90.4       15.43            0.00            0.00         15.43         0.00         0.00
     85.9       15.27            0.00            0.00         15.27         0.00         0.00
     81.4       15.11            0.00            0.00         15.11         0.00         0.00
     76.9       14.94            0.00            0.00         14.94         0.00         0.00
     72.4       14.76            0.00            0.00         14.76         0.00         0.00
     67.9       14.57            0.00            0.00         14.57         0.00         0.00
     63.4       14.37            0.00            0.00         14.37         0.00         0.00
     58.9       14.16            0.00            0.00         14.16         0.00         0.00
     54.4       13.94            0.00            0.00         13.94         0.00         0.00
     49.9       13.70            0.00            0.00         13.70         0.00         0.00
     45.4       13.45            0.00            0.00         13.45         0.00         0.00
     40.9       13.17            0.00            0.00         13.17         0.00         0.00
     36.4       12.86            0.00            0.00         12.86         0.00         0.00


Harvested Random Seeds after Generation of the Random Numbers:

    124337664 K 1
            0 K 2


Hub-Height Simulated Turbulence Statistical Summary:

   Type of Wind        Min (m/s)   Mean (m/s)    Max (m/s)  Sigma (m/s)       TI (%)
   ----------------    ---------   ----------    ---------  -----------       ------
   Longitudinal (u)         6.03        16.00        27.72        2.891       18.069
   Lateral (v)             -7.44         0.00         7.95        2.260       14.123
   Vertical (w)            -4.62        -0.00         5.28        1.358        8.485
   U component              6.03        16.00        27.72        2.891       18.069
   V component             -7.44         0.00         7.95        2.260       14.123
   W component             -4.62        -0.00         5.28        1.358        8.485
   Horizontal (U&V)         6.03        16.16        27.77        2.862       17.709
   Total                    6.16        16.22        27.77        2.858       17.617

                       Min Reynolds     Mean Reynolds    Max Reynolds    Correlation
   Product             Stress (m/s)^2   Stress (m/s)^2   Stress (m/s)^2  Coefficient
   ----------------    --------------   --------------   --------------  -----------
   u'w'                    -23.746             0.176            34.585         0.045
   u'v'                    -53.984             0.211            35.241         0.032
   v'w'                    -27.334             0.135            24.452         0.044


   Friction Velocity (Ustar)  =      0.420 m/s
   Maximum Instantaneous TKE  =     70.140 (m/s)^2
   Maximum Instantaneous CTKE =     27.267 (m/s)^2


Grid Point Variance Summary:

   Y-coord  -72.00  -67.50  -63.00  -58.50  -54.00  -49.50  -45.00  -40.50  -36.00  -31.50  -27.00  -22.50  -18.00  -13.50   -9.00   -4.50    0.00    4.50    9.00   13.50   18.00   22.50   27.00   31.50   36.00   40.50   45.00   49.50   54.00   58.50   63.00   67.50   72.00

   Height   Standard deviation at grid points for the u component:
   180.44    2.753   2.749   2.739   2.752   2.798   2.814   2.770   2.796   2.843   2.857   2.806   2.848   2.940   2.916   2.938   2.799   2.737   2.748   2.852   2.799   2.765   2.805   2.794   2.816   2.863   2.793   2.839   2.856   2.798   2.837   2.862   2.871   2.860
   175.94    2.773   2.737   2.746   2.766   2.807   2.825   2.812   2.844   2.827   2.847   2.892   2.912   2.901   2.964   2.897   2.872   2.835   2.834   2.840   2.851   2.803   2.848   2.831   2.848   2.812   2.793   2.849   2.859   2.835   2.840   2.868   2.896   2.866
   171.44    2.736   2.710   2.669   2.783   2.839   2.826   2.869   2.927   2.908   2.916   2.921   2.898   2.926   3.009   2.957   2.927   2.862   2.888   2.854   2.779   2.782   2.805   2.814   2.823   2.828   2.871   2.845   2.854   2.806   2.786   2.804   2.830   2.880
   166.94    2.704   2.709   2.728   2.787   2.834   2.873   2.916   2.941   2.996   2.936   2.917   2.907   2.947   2.968   2.947   2.915   2.892   2.849   2.796   2.781   2.792   2.804   2.823   2.860   2.843   2.854   2.893   2.883   2.790   2.804   2.793   2.849   2.870
   162.44    2.730   2.766   2.785   2.793   2.834   2.863   2.914   2.963   2.940   2.989   2.933   2.944   2.865   2.911   2.915   2.827   2.835   2.826   2.787   2.787   2.823   2.789   2.799   2.777   2.804   2.860   2.902   2.822   2.806   2.814   2.838   2.794   2.853
   157.94    2.810   2.817   2.784   2.851   2.848   2.906   2.919   2.955   2.926   2.947   2.926   2.808   2.856   2.893   2.865   2.812   2.780   2.765   2.793   2.772   2.774   2.721   2.731   2.686   2.753   2.816   2.779   2.805   2.815   2.860   2.837   2.807   2.817
   153.44    2.848   2.875   2.797   2.826   2.842   2.868   2.930   2.928   2.873   2.869   2.926   2.871   2.780   2.873   2.842   2.782   2.741   2.772   2.732   2.732   2.718   2.682   2.729   2.759   2.732   2.690   2.726   2.770   2.776   2.769   2.801   2.784   2.760
   148.94    2.892   2.907   2.850   2.825   2.871   2.920   2.901   2.941   2.854   2.946   2.912   2.866   2.916   2.848   2.791   2.778   2.755   2.765   2.792   2.709   2.716   2.722   2.721   2.683   2.735   2.726   2.730   2.682   2.762   2.829   2.826   2.767   2.766
   144.44    2.901   2.894   2.907   2.854   2.875   2.891   2.876   2.919   2.914   2.981   2.969   2.897   2.886   2.824   2.790   2.818   2.804   2.794   2.681   2.715   2.741   2.726   2.636   2.677   2.714   2.697   2.701   2.704   2.748   2.783   2.845   2.824   2.809
   139.94    2.887   2.929   2.907   2.910   2.926   2.895   2.846   2.907   2.981   2.951   2.927   2.907   2.858   2.847   2.794   2.813   2.785   2.753   2.797   2.728   2.758   2.689   2.674   2.699   2.698   2.703   2.738   2.756   2.776   2.789   2.809   2.796   2.777
   135.44    2.900   2.950   2.967   2.955   2.911   2.911   2.885   2.967   2.937   2.947   2.945   2.909   2.897   2.827   2.883   2.856   2.771   2.793   2.832   2.740   2.775   2.766   2.791   2.855   2.766   2.688   2.693   2.765   2.789   2.740   2.750   2.746   2.802
   130.94    2.859   2.906   2.973   2.988   2.961   2.887   2.858   2.867   2.879   2.932   2.878   2.890   2.944   2.909   2.898   2.826   2.770   2.763   2.802   2.786   2.751   2.766   2.766   2.756   2.762   2.723   2.712   2.811   2.756   2.691   2.759   2.795   2.823
   126.44    2.906   2.930   2.965   2.992   2.948   2.872   2.867   2.915   2.846   2.862   2.891   2.870   2.948   2.952   2.905   2.854   2.778   2.809   2.847   2.853   2.789   2.796   2.764   2.767   2.781   2.774   2.817   2.827   2.728   2.747   2.743   2.775   2.827
   121.94    2.923   2.918   2.989   2.974   2.889   2.900   2.922   2.907   2.894   2.853   2.877   2.820   2.875   2.936   2.927   2.839   2.810   2.800   2.826   2.827   2.773   2.784   2.837   2.866   2.826   2.856   2.840   2.805   2.807   2.774   2.757   2.716   2.704
   117.44    2.908   2.911   2.889   2.921   2.948   2.888   2.921   2.924   2.895   2.902   2.924   2.953   2.953   2.907   2.869   2.854   2.867   2.833   2.878   2.835   2.795   2.820   2.851   2.854   2.837   2.883   2.849   2.784   2.756   2.783   2.741   2.691   2.713
   112.94    2.925   2.872   2.825   2.898   2.858   2.906   2.926   2.870   2.871   2.892   2.961   3.001   2.971   2.898   2.912   2.868   2.890   2.891   2.845   2.835   2.811   2.804   2.812   2.780   2.761   2.812   2.835   2.783   2.794   2.790   2.773   2.726   2.765
   108.44    2.914   2.837   2.886   2.838   2.883   2.931   2.934   2.936   2.971   2.971   2.990   2.972   2.970   2.971   2.939   2.926   2.891   2.853   2.867   2.843   2.818   2.809   2.781   2.784   2.778   2.809   2.840   2.881   2.815   2.837   2.784   2.790   2.870
   103.94    2.886   2.923   2.899   2.952   2.967   2.946   2.919   2.890   2.983   3.025   3.015   2.976   3.028   2.968   2.929   2.907   2.909   2.862   2.870   2.826   2.785   2.852   2.801   2.773   2.738   2.747   2.756   2.786   2.825   2.861   2.827   2.804   2.883
    99.44    2.916   2.954   2.956   3.015   3.020   2.965   2.937   2.910   2.992   2.998   3.057   3.054   3.051   3.023   2.956   2.934   2.906   2.918   2.820   2.868   2.854   2.831   2.836   2.777   2.778   2.755   2.747   2.798   2.798   2.803   2.832   2.852   2.881
    94.94    2.986   2.959   2.935   2.984   3.007   3.007   2.976   3.015   2.981   3.003   3.030   3.092   3.103   3.069   3.027   3.005   2.955   2.890   2.899   2.882   2.858   2.848   2.810   2.762   2.758   2.791   2.763   2.761   2.759   2.807   2.839   2.842   2.879
    90.44    2.948   2.908   2.965   2.992   3.013   3.067   3.019   3.036   2.984   2.954   2.995   3.053   3.025   2.979   3.017   3.033   3.000   2.929   2.909   2.930   2.951   2.855   2.794   2.844   2.879   2.828   2.739   2.777   2.707   2.795   2.857   2.813   2.840
    85.94    2.919   2.909   2.966   2.981   2.995   3.047   3.095   3.060   2.993   2.947   3.042   3.052   3.023   2.969   2.984   2.965   2.999   2.970   2.981   2.972   2.971   2.896   2.852   2.814   2.841   2.852   2.822   2.810   2.784   2.827   2.820   2.797   2.781
    81.44    2.955   2.964   2.997   3.018   2.958   3.013   3.024   3.039   3.017   2.942   3.000   3.011   3.015   2.985   2.998   3.040   3.021   2.965   2.959   3.003   2.973   2.952   2.901   2.896   2.822   2.811   2.766   2.758   2.821   2.840   2.822   2.817   2.814
    76.94    2.903   2.988   3.004   2.967   2.908   2.939   2.966   2.925   2.965   3.013   2.958   3.038   3.005   2.995   2.939   3.011   2.988   2.993   2.999   3.048   3.024   2.997   3.000   2.917   2.863   2.826   2.818   2.795   2.801   2.844   2.802   2.797   2.807
    72.44    2.981   3.026   2.973   2.917   2.997   2.993   2.927   2.985   3.004   2.965   2.953   2.997   2.976   2.981   2.913   2.922   2.931   2.937   2.959   2.986   3.032   2.983   3.026   2.970   2.859   2.834   2.816   2.808   2.801   2.815   2.759   2.781   2.775
    67.94    3.002   3.028   2.940   2.955   2.993   3.010   3.022   2.967   2.923   2.979   2.952   2.954   2.938   2.930   2.876   2.898   2.886   2.981   2.954   2.930   2.918   3.004   2.972   2.900   2.836   2.829   2.774   2.840   2.795   2.831   2.774   2.771   2.781
    63.44    3.058   3.079   2.966   2.942   3.006   3.048   2.985   2.977   2.933   2.931   2.936   2.969   2.933   2.964   2.930   2.900   2.885   2.928   2.939   2.905   2.921   3.018   2.937   2.892   2.863   2.885   2.833   2.841   2.794   2.775   2.799   2.780   2.764
    58.94    3.050   3.084   3.081   3.024   2.956   3.036   3.059   3.008   2.968   2.894   2.894   2.905   2.957   2.973   2.881   2.900   2.926   2.939   2.884   2.910   2.977   3.017   2.979   2.912   2.839   2.827   2.829   2.796   2.810   2.786   2.779   2.797   2.798
    54.44    3.004   3.054   3.042   3.010   3.036   3.067   3.071   3.009   2.997   3.000   2.994   2.979   2.926   2.954   2.920   2.919   2.957   2.904   2.913   2.968   3.001   2.975   2.939   2.855   2.825   2.827   2.838   2.806   2.771   2.743   2.723   2.764   2.730
    49.94    3.008   3.027   3.044   3.105   3.053   3.083   3.032   3.065   3.031   3.046   2.972   2.983   2.937   2.890   2.869   2.863   2.923   2.941   2.957   3.002   2.939   2.929   2.867   2.889   2.756   2.790   2.821   2.865   2.791   2.722   2.745   2.728   2.737
    45.44    2.957   2.980   2.983   3.050   3.074   3.051   3.023   3.095   3.107   3.099   3.057   2.929   2.954   2.893   2.898   2.928   2.954   2.971   2.936   3.005   2.970   2.927   2.856   2.814   2.782   2.828   2.793   2.829   2.775   2.777   2.715   2.757   2.796
    40.94    2.917   2.944   3.023   3.040   3.038   3.004   3.005   3.051   3.115   3.121   3.052   3.006   3.014   2.940   2.941   2.907   2.894   2.945   2.973   2.914   2.955   2.939   2.857   2.814   2.815   2.808   2.763   2.740   2.687   2.715   2.718   2.751   2.815
    36.44    2.844   2.922   2.933   2.972   3.000   2.991   2.997   3.051   3.103   3.087   3.071   3.127   3.003   2.949   2.968   2.941   2.926   2.939   2.944   2.922   2.973   2.951   2.878   2.805   2.783   2.782   2.717   2.730   2.746   2.682   2.742   2.785   2.798

   Height   Standard deviation at grid points for the v component:
   180.44    2.260   2.260   2.260   2.260   2.260   2.260   2.260   2.260   2.260   2.260   2.260   2.260   2.260   2.260   2.260   2.260   2.260   2.260   2.260   2.260   2.260   2.260   2.260   2.260   2.260   2.260   2.260   2.260   2.260   2.260   2.260   2.260   2.260
   175.94    2.260   2.260   2.260   2.260   2.260   2.260   2.260   2.260   2.260   2.260   2.260   2.260   2.260   2.260   2.260   2.260   2.260   2.260   2.260   2.260   2.260   2.260   2.260   2.260   2.260   2.260   2.260   2.260   2.260   2.260   2.260   2.260   2.260
   171.44    2.260   2.260   2.260   2.260   2.260   2.260   2.260   2.260   2.260   2.260   2.260   2.260   2.260   2.260   2.260   2.260   2.260   2.260   2.260   2.260   2.260   2.260   2.260   2.260   2.260   2.260   2.260   2.260   2.260   2.260   2.260   2.260   2.260
   166.94    2.260   2.260   2.260   2.260   2.260   2.260   2.260   2.260   2.260   2.260   2.260   2.260   2.260   2.260   2.260   2.260   2.260   2.260   2.260   2.260   2.260   2.260   2.260   2.260   2.260   2.260   2.260   2.260   2.260   2.260   2.260   2.260   2.260
   162.44    2.260   2.260   2.260   2.260   2.260   2.260   2.260   2.260   2.260   2.260   2.260   2.260   2.260   2.260   2.260   2.260   2.260   2.260   2.260   2.260   2.260   2.260   2.260   2.260   2.260   2.260   2.260   2.260   2.260   2.260   2.260   2.260   2.260
   157.94    2.260   2.260   2.260   2.260   2.260   2.260   2.260   2.260   2.260   2.260   2.260   2.260   2.260   2.260   2.260   2.260   2.260   2.260   2.260   2.260   2.260   2.260   2.260   2.260   2.260   2.260   2.260   2.260   2.260   2.260   2.260   2.260   2.260
   153.44    2.260   2.260   2.260   2.260   2.260   2.260   2.260   2.260   2.260   2.260   2.260   2.260   2.260   2.260   2.260   2.260   2.260   2.260   2.260   2.260   2.260   2.260   2.260   2.260   2.260   2.260   2.260   2.260   2.260   2.260   2.260   2.260   2.260
   148.94    2.260   2.260   2.260   2.260   2.260   2.260   2.260   2.260   2.260   2.260   2.260   2.260   2.260   2.260   2.260   2.260   2.260   2.260   2.260   2.260   2.260   2.260   2.260   2.260   2.260   2.260   2.260   2.260   2.260   2.260   2.260   2.260   2.260
   144.44    2.260   2.260   2.260   2.260   2.260   2.260   2.260   2.260   2.260   2.260   2.260   2.260   2.260   2.260   2.260   2.260   2.260   2.260   2.260   2.260   2.260   2.260   2.260   2.260   2.260   2.260   2.260   2.260   2.260   2.260   2.260   2.260   2.260
   139.94    2.260   2.260   2.260   2.260   2.260   2.260   2.260   2.260   2.260   2.260   2.260   2.260   2.260   2.260   2.260   2.260   2.260   2.260   2.260   2.260   2.260   2.260   2.260   2.260   2.260   2.260   2.260   2.260   2.260   2.260   2.260   2.260   2.260
   135.44    2.260   2.260   2.260   2.260   2.260   2.260   2.260   2.260   2.260   2.260   2.260   2.260   2.260   2.260   2.260   2.260   2.260   2.260   2.260   2.260   2.260   2.260   2.260   2.260   2.260   2.260   2.260   2.260   2.260   2.260   2.260   2.260   2.260
   130.94    2.260   2.260   2.260   2.260   2.260   2.260   2.260   2.260   2.260   2.260   2.260   2.260   2.260   2.260   2.260   2.260   2.260   2.260   2.260   2.260   2.260   2.260   2.260   2.260   2.260   2.260   2.260   2.260   2.260   2.260   2.260   2.260   2.260
   126.44    2.260   2.260   2.260   2.260   2.260   2.260   2.260   2.260   2.260   2.260   2.260   2.260   2.260   2.260   2.260   2.260   2.260   2.260   2.260   2.260   2.260   2.260   2.260   2.260   2.260   2.260   2.260   2.260   2.260   2.260   2.260   2.260   2.260
   121.94    2.260   2.260   2.260   2.260   2.260   2.260   2.260   2.260   2.260   2.260   2.260   2.260   2.260   2.260   2.260   2.260   2.260   2.260   2.260   2.260   2.260   2.260   2.260   2.260   2.260   2.260   2.260   2.260   2.260   2.260   2.260   2.260   2.260
   117.44    2.260   2.260   2.260   2.260   2.260   2.260   2.260   2.260   2.260   2.260   2.260   2.260   2.260   2.260   2.260   2.260   2.260   2.260   2.260   2.260   2.260   2.260   2.260   2.260   2.260   2.260   2.260   2.260   2.260   2.260   2.260   2.260   2.260
   112.94    2.260   2.260   2.260   2.260   2.260   2.260   2.260   2.260   2.260   2.260   2.260   2.260   2.260   2.260   2.260   2.260   2.260   2.260   2.260   2.260   2.260   2.260   2.260   2.260   2.260   2.260   2.260   2.260   2.260   2.260   2.260   2.260   2.260
   108.44    2.260   2.260   2.260   2.260   2.260   2.260   2.260   2.260   2.260   2.260   2.260   2.260   2.260   2.260   2.260   2.260   2.260   2.260   2.260   2.260   2.260   2.260   2.260   2.260   2.260   2.260   2.260   2.260   2.260   2.260   2.260   2.260   2.260
   103.94    2.260   2.260   2.260   2.260   2.260   2.260   2.260   2.260   2.260   2.260   2.260   2.260   2.260   2.260   2.260   2.260   2.260   2.260   2.260   2.260   2.260   2.260   2.260   2.260   2.260   2.260   2.260   2.260   2.260   2.260   2.260   2.260   2.260
    99.44    2.260   2.260   2.260   2.260   2.260   2.260   2.260   2.260   2.260   2.260   2.260   2.260   2.260   2.260   2.260   2.260   2.260   2.260   2.260   2.260   2.260   2.260   2.260   2.260   2.260   2.260   2.260   2.260   2.260   2.260   2.260   2.260   2.260
    94.94    2.260   2.260   2.260   2.260   2.260   2.260   2.260   2.260   2.260   2.260   2.260   2.260   2.260   2.260   2.260   2.260   2.260   2.260   2.260   2.260   2.260   2.260   2.260   2.260   2.260   2.260   2.260   2.260   2.260   2.260   2.260   2.260   2.260
    90.44    2.260   2.260   2.260   2.260   2.260   2.260   2.260   2.260   2.260   2.260   2.260   2.260   2.260   2.260   2.260   2.260   2.260   2.260   2.260   2.260   2.260   2.260   2.260   2.260   2.260   2.260   2.260   2.260   2.260   2.260   2.260   2.260   2.260
    85.94    2.260   2.260   2.260   2.260   2.260   2.260   2.260   2.260   2.260   2.260   2.260   2.260   2.260   2.260   2.260   2.260   2.260   2.260   2.260   2.260   2.260   2.260   2.260   2.260   2.260   2.260   2.260   2.260   2.260   2.260   2.260   2.260   2.260
    81.44    2.260   2.260   2.260   2.260   2.260   2.260   2.260   2.260   2.260   2.260   2.260   2.260   2.260   2.260   2.260   2.260   2.260   2.260   2.260   2.260   2.260   2.260   2.260   2.260   2.260   2.260   2.260   2.260   2.260   2.260   2.260   2.260   2.260
    76.94    2.260   2.260   2.260   2.260   2.260   2.260   2.260   2.260   2.260   2.260   2.260   2.260   2.260   2.260   2.260   2.260   2.260   2.260   2.260   2.260   2.260   2.260   2.260   2.260   2.260   2.260   2.260   2.260   2.260   2.260   2.260   2.260   2.260
    72.44    2.260   2.260   2.260   2.260   2.260   2.260   2.260   2.260   2.260   2.260   2.260   2.260   2.260   2.260   2.260   2.260   2.260   2.260   2.260   2.260   2.260   2.260   2.260   2.260   2.260   2.260   2.260   2.260   2.260   2.260   2.260   2.260   2.260
    67.94    2.260   2.260   2.260   2.260   2.260   2.260   2.260   2.260   2.260   2.260   2.260   2.260   2.260   2.260   2.260   2.260   2.260   2.260   2.260   2.260   2.260   2.260   2.260   2.260   2.260   2.260   2.260   2.260   2.260   2.260   2.260   2.260   2.260
    63.44    2.260   2.260   2.260   2.260   2.260   2.260   2.260   2.260   2.260   2.260   2.260   2.260   2.260   2.260   2.260   2.260   2.260   2.260   2.260   2.260   2.260   2.260   2.260   2.260   2.260   2.260   2.260   2.260   2.260   2.260   2.260   2.260   2.260
    58.94    2.260   2.260   2.260   2.260   2.260   2.260   2.260   2.260   2.260   2.260   2.260   2.260   2.260   2.260   2.260   2.260   2.260   2.260   2.260   2.260   2.260   2.260   2.260   2.260   2.260   2.260   2.260   2.260   2.260   2.260   2.260   2.260   2.260
    54.44    2.260   2.260   2.260   2.260   2.260   2.260   2.260   2.260   2.260   2.260   2.260   2.260   2.260   2.260   2.260   2.260   2.260   2.260   2.260   2.260   2.260   2.260   2.260   2.260   2.260   2.260   2.260   2.260   2.260   2.260   2.260   2.260   2.260
    49.94    2.260   2.260   2.260   2.260   2.260   2.260   2.260   2.260   2.260   2.260   2.260   2.260   2.260   2.260   2.260   2.260   2.260   2.260   2.260   2.260   2.260   2.260   2.260   2.260   2.260   2.260   2.260   2.260   2.260   2.260   2.260   2.260   2.260
    45.44    2.260   2.260   2.260   2.260   2.260   2.260   2.260   2.260   2.260   2.260   2.260   2.260   2.260   2.260   2.260   2.260   2.260   2.260   2.260   2.260   2.260   2.260   2.260   2.260   2.260   2.260   2.260   2.260   2.260   2.260   2.260   2.260   2.260
    40.94    2.260   2.260   2.260   2.260   2.260   2.260   2.260   2.260   2.260   2.260   2.260   2.260   2.260   2.260   2.260   2.260   2.260   2.260   2.260   2.260   2.260   2.260   2.260   2.260   2.260   2.260   2.260   2.260   2.260   2.260   2.260   2.260   2.260
    36.44    2.260   2.260   2.260   2.260   2.260   2.260   2.260   2.260   2.260   2.260   2.260   2.260   2.260   2.260   2.260   2.260   2.260   2.260   2.260   2.260   2.260   2.260   2.260   2.260   2.260   2.260   2.260   2.260   2.260   2.260   2.260   2.260   2.260

   Height   Standard deviation at grid points for the w component:
   180.44    1.358   1.358   1.358   1.358   1.358   1.358   1.358   1.358   1.358   1.358   1.358   1.358   1.358   1.358   1.358   1.358   1.358   1.358   1.358   1.358   1.358   1.358   1.358   1.358   1.358   1.358   1.358   1.358   1.358   1.358   1.358   1.358   1.358
   175.94    1.358   1.358   1.358   1.358   1.358   1.358   1.358   1.358   1.358   1.358   1.358   1.358   1.358   1.358   1.358   1.358   1.358   1.358   1.358   1.358   1.358   1.358   1.358   1.358   1.358   1.358   1.358   1.358   1.358   1.358   1.358   1.358   1.358
   171.44    1.358   1.358   1.358   1.358   1.358   1.358   1.358   1.358   1.358   1.358   1.358   1.358   1.358   1.358   1.358   1.358   1.358   1.358   1.358   1.358   1.358   1.358   1.358   1.358   1.358   1.358   1.358   1.358   1.358   1.358   1.358   1.358   1.358
   166.94    1.358   1.358   1.358   1.358   1.358   1.358   1.358   1.358   1.358   1.358   1.358   1.358   1.358   1.358   1.358   1.358   1.358   1.358   1.358   1.358   1.358   1.358   1.358   1.358   1.358   1.358   1.358   1.358   1.358   1.358   1.358   1.358   1.358
   162.44    1.358   1.358   1.358   1.358   1.358   1.358   1.358   1.358   1.358   1.358   1.358   1.358   1.358   1.358   1.358   1.358   1.358   1.358   1.358   1.358   1.358   1.358   1.358   1.358   1.358   1.358   1.358   1.358   1.358   1.358   1.358   1.358   1.358
   157.94    1.358   1.358   1.358   1.358   1.358   1.358   1.358   1.358   1.358   1.358   1.358   1.358   1.358   1.358   1.358   1.358   1.358   1.358   1.358   1.358   1.358   1.358   1.358   1.358   1.358   1.358   1.358   1.358   1.358   1.358   1.358   1.358   1.358
   153.44    1.358   1.358   1.358   1.358   1.358   1.358   1.358   1.358   1.358   1.358   1.358   1.358   1.358   1.358   1.358   1.358   1.358   1.358   1.358   1.358   1.358   1.358   1.358   1.358   1.358   1.358   1.358   1.358   1.358   1.358   1.358   1.358   1.358
   148.94    1.358   1.358   1.358   1.358   1.358   1.358   1.358   1.358   1.358   1.358   1.358   1.358   1.358   1.358   1.358   1.358   1.358   1.358   1.358   1.358   1.358   1.358   1.358   1.358   1.358   1.358   1.358   1.358   1.358   1.358   1.358   1.358   1.358
   144.44    1.358   1.358   1.358   1.358   1.358   1.358   1.358   1.358   1.358   1.358   1.358   1.358   1.358   1.358   1.358   1.358   1.358   1.358   1.358   1.358   1.358   1.358   1.358   1.358   1.358   1.358   1.358   1.358   1.358   1.358   1.358   1.358   1.358
   139.94    1.358   1.358   1.358   1.358   1.358   1.358   1.358   1.358   1.358   1.358   1.358   1.358   1.358   1.358   1.358   1.358   1.358   1.358   1.358   1.358   1.358   1.358   1.358   1.358   1.358   1.358   1.358   1.358   1.358   1.358   1.358   1.358   1.358
   135.44    1.358   1.358   1.358   1.358   1.358   1.358   1.358   1.358   1.358   1.358   1.358   1.358   1.358   1.358   1.358   1.358   1.358   1.358   1.358   1.358   1.358   1.358   1.358   1.358   1.358   1.358   1.358   1.358   1.358   1.358   1.358   1.358   1.358
   130.94    1.358   1.358   1.358   1.358   1.358   1.358   1.358   1.358   1.358   1.358   1.358   1.358   1.358   1.358   1.358   1.358   1.358   1.358   1.358   1.358   1.358   1.358   1.358   1.358   1.358   1.358   1.358   1.358   1.358   1.358   1.358   1.358   1.358
   126.44    1.358   1.358   1.358   1.358   1.358   1.358   1.358   1.358   1.358   1.358   1.358   1.358   1.358   1.358   1.358   1.358   1.358   1.358   1.358   1.358   1.358   1.358   1.358   1.358   1.358   1.358   1.358   1.358   1.358   1.358   1.358   1.358   1.358
   121.94    1.358   1.358   1.358   1.358   1.358   1.358   1.358   1.358   1.358   1.358   1.358   1.358   1.358   1.358   1.358   1.358   1.358   1.358   1.358   1.358   1.358   1.358   1.358   1.358   1.358   1.358   1.358   1.358   1.358   1.358   1.358   1.358   1.358
   117.44    1.358   1.358   1.358   1.358   1.358   1.358   1.358   1.358   1.358   1.358   1.358   1.358   1.358   1.358   1.358   1.358   1.358   1.358   1.358   1.358   1.358   1.358   1.358   1.358   1.358   1.358   1.358   1.358   1.358   1.358   1.358   1.358   1.358
   112.94    1.358   1.358   1.358   1.358   1.358   1.358   1.358   1.358   1.358   1.358   1.358   1.358   1.358   1.358   1.358   1.358   1.358   1.358   1.358   1.358   1.358   1.358   1.358   1.358   1.358   1.358   1.358   1.358   1.358   1.358   1.358   1.358   1.358
   108.44    1.358   1.358   1.358   1.358   1.358   1.358   1.358   1.358   1.358   1.358   1.358   1.358   1.358   1.358   1.358   1.358   1.358   1.358   1.358   1.358   1.358   1.358   1.358   1.358   1.358   1.358   1.358   1.358   1.358   1.358   1.358   1.358   1.358
   103.94    1.358   1.358   1.358   1.358   1.358   1.358   1.358   1.358   1.358   1.358   1.358   1.358   1.358   1.358   1.358   1.358   1.358   1.358   1.358   1.358   1.358   1.358   1.358   1.358   1.358   1.358   1.358   1.358   1.358   1.358   1.358   1.358   1.358
    99.44    1.358   1.358   1.358   1.358   1.358   1.358   1.358   1.358   1.358   1.358   1.358   1.358   1.358   1.358   1.358   1.358   1.358   1.358   1.358   1.358   1.358   1.358   1.358   1.358   1.358   1.358   1.358   1.358   1.358   1.358   1.358   1.358   1.358
    94.94    1.358   1.358   1.358   1.358   1.358   1.358   1.358   1.358   1.358   1.358   1.358   1.358   1.358   1.358   1.358   1.358   1.358   1.358   1.358   1.358   1.358   1.358   1.358   1.358   1.358   1.358   1.358   1.358   1.358   1.358   1.358   1.358   1.358
    90.44    1.358   1.358   1.358   1.358   1.358   1.358   1.358   1.358   1.358   1.358   1.358   1.358   1.358   1.358   1.358   1.358   1.358   1.358   1.358   1.358   1.358   1.358   1.358   1.358   1.358   1.358   1.358   1.358   1.358   1.358   1.358   1.358   1.358
    85.94    1.358   1.358   1.358   1.358   1.358   1.358   1.358   1.358   1.358   1.358   1.358   1.358   1.358   1.358   1.358   1.358   1.358   1.358   1.358   1.358   1.358   1.358   1.358   1.358   1.358   1.358   1.358   1.358   1.358   1.358   1.358   1.358   1.358
    81.44    1.358   1.358   1.358   1.358   1.358   1.358   1.358   1.358   1.358   1.358   1.358   1.358   1.358   1.358   1.358   1.358   1.358   1.358   1.358   1.358   1.358   1.358   1.358   1.358   1.358   1.358   1.358   1.358   1.358   1.358   1.358   1.358   1.358
    76.94    1.358   1.358   1.358   1.358   1.358   1.358   1.358   1.358   1.358   1.358   1.358   1.358   1.358   1.358   1.358   1.358   1.358   1.358   1.358   1.358   1.358   1.358   1.358   1.358   1.358   1.358   1.358   1.358   1.358   1.358   1.358   1.358   1.358
    72.44    1.358   1.358   1.358   1.358   1.358   1.358   1.358   1.358   1.358   1.358   1.358   1.358   1.358   1.358   1.358   1.358   1.358   1.358   1.358   1.358   1.358   1.358   1.358   1.358   1.358   1.358   1.358   1.358   1.358   1.358   1.358   1.358   1.358
    67.94    1.358   1.358   1.358   1.358   1.358   1.358   1.358   1.358   1.358   1.358   1.358   1.358   1.358   1.358   1.358   1.358   1.358   1.358   1.358   1.358   1.358   1.358   1.358   1.358   1.358   1.358   1.358   1.358   1.358   1.358   1.358   1.358   1.358
    63.44    1.358   1.358   1.358   1.358   1.358   1.358   1.358   1.358   1.358   1.358   1.358   1.358   1.358   1.358   1.358   1.358   1.358   1.358   1.358   1.358   1.358   1.358   1.358   1.358   1.358   1.358   1.358   1.358   1.358   1.358   1.358   1.358   1.358
    58.94    1.358   1.358   1.358   1.358   1.358   1.358   1.358   1.358   1.358   1.358   1.358   1.358   1.358   1.358   1.358   1.358   1.358   1.358   1.358   1.358   1.358   1.358   1.358   1.358   1.358   1.358   1.358   1.358   1.358   1.358   1.358   1.358   1.358
    54.44    1.358   1.358   1.358   1.358   1.358   1.358   1.358   1.358   1.358   1.358   1.358   1.358   1.358   1.358   1.358   1.358   1.358   1.358   1.358   1.358   1.358   1.358   1.358   1.358   1.358   1.358   1.358   1.358   1.358   1.358   1.358   1.358   1.358
    49.94    1.358   1.358   1.358   1.358   1.358   1.358   1.358   1.358   1.358   1.358   1.358   1.358   1.358   1.358   1.358   1.358   1.358   1.358   1.358   1.358   1.358   1.358   1.358   1.358   1.358   1.358   1.358   1.358   1.358   1.358   1.358   1.358   1.358
    45.44    1.358   1.358   1.358   1.358   1.358   1.358   1.358   1.358   1.358   1.358   1.358   1.358   1.358   1.358   1.358   1.358   1.358   1.358   1.358   1.358   1.358   1.358   1.358   1.358   1.358   1.358   1.358   1.358   1.358   1.358   1.358   1.358   1.358
    40.94    1.358   1.358   1.358   1.358   1.358   1.358   1.358   1.358   1.358   1.358   1.358   1.358   1.358   1.358   1.358   1.358   1.358   1.358   1.358   1.358   1.358   1.358   1.358   1.358   1.358   1.358   1.358   1.358   1.358   1.358   1.358   1.358   1.358
    36.44    1.358   1.358   1.358   1.358   1.358   1.358   1.358   1.358   1.358   1.358   1.358   1.358   1.358   1.358   1.358   1.358   1.358   1.358   1.358   1.358   1.358   1.358   1.358   1.358   1.358   1.358   1.358   1.358   1.358   1.358   1.358   1.358   1.358

   Mean standard deviation across all grid points:
      u component:    2.877 m/s
      v component:    2.260 m/s
      w component:    1.358 m/s


U-component (X) statistics from the interpolated hub point:

   Mean =  16.0000 m/s
   TI   =  18.0686 %


Normalizing Parameters for Binary Data (approximate statistics):

   UBar  =  16.0000 m/s
   TI(u) =  18.0686 %
   TI(v) =  14.1234 %
   TI(w) =   8.4845 %

   Height Offset =  -0.0000 m
   Grid Base     =  36.4360 m

Creating a PERIODIC output file.


Processing complete.  260.53 CPU seconds used.
